/*--------------------------------*- C++ -*----------------------------------*\
| =========                 |                                                 |
| \\      /  F ield         | OpenFOAM: The Open Source CFD Toolbox           |
|  \\    /   O peration     | Version:  2206                                  |
|   \\  /    A nd           | Website:  www.openfoam.com                      |
|    \\/     M anipulation  |                                                 |
\*---------------------------------------------------------------------------*/
FoamFile
{
    version     2.0;
    format      ascii;
    arch        "LSB;label=32;scalar=64";
    class       polyBoundaryMesh;
    location    "constant/polyMesh";
    object      boundary;
}
// * * * * * * * * * * * * * * * * * * * * * * * * * * * * * * * * * * * * * //

9
(
    inlet
    {
        type            patch;
        nFaces          512;
        startFace       20789;
    }
    outlet
    {
        type            patch;
        nFaces          0;
        startFace       21301;
    }
    top
    {
        type            wall;
        inGroups        1(wall);
        nFaces          158;
        startFace       21301;
    }
    bottom
    {
        type            wall;
        inGroups        1(wall);
        nFaces          288;
        startFace       21459;
    }
    left
    {
        type            wall;
        inGroups        1(wall);
        nFaces          483;
        startFace       21747;
    }
    symmetry
    {
        type            symmetryPlane;
        inGroups        1(symmetryPlane);
        nFaces          438;
        startFace       22230;
    }
    interface
    {
        type            wall;
        inGroups        1(wall);
        nFaces          181;
        startFace       22668;
    }
    procBoundary0to1
    {
        type            processor;
        inGroups        1(processor);
        nFaces          426;
        startFace       22849;
        matchTolerance  0.000100000000000000005;
        transform       unknown;
        myProcNo        0;
        neighbProcNo    1;
    }
    procBoundary0to3
    {
        type            processor;
        inGroups        1(processor);
        nFaces          96;
        startFace       23275;
        matchTolerance  0.000100000000000000005;
        transform       unknown;
        myProcNo        0;
        neighbProcNo    3;
    }
)

// ************************************************************************* //
