/*--------------------------------*- C++ -*----------------------------------*\
| =========                 |                                                 |
| \\      /  F ield         | OpenFOAM: The Open Source CFD Toolbox           |
|  \\    /   O peration     | Version:  2206                                  |
|   \\  /    A nd           | Website:  www.openfoam.com                      |
|    \\/     M anipulation  |                                                 |
\*---------------------------------------------------------------------------*/
FoamFile
{
    version     2.0;
    format      ascii;
    arch        "LSB;label=32;scalar=64";
    class       polyBoundaryMesh;
    location    "constant/polyMesh";
    object      boundary;
}
// * * * * * * * * * * * * * * * * * * * * * * * * * * * * * * * * * * * * * //

9
(
    inlet
    {
        type            patch;
        nFaces          0;
        startFace       20856;
    }
    outlet
    {
        type            patch;
        nFaces          368;
        startFace       20856;
    }
    top
    {
        type            wall;
        inGroups        1(wall);
        nFaces          336;
        startFace       21224;
    }
    bottom
    {
        type            wall;
        inGroups        1(wall);
        nFaces          0;
        startFace       21560;
    }
    left
    {
        type            wall;
        inGroups        1(wall);
        nFaces          458;
        startFace       21560;
    }
    symmetry
    {
        type            symmetryPlane;
        inGroups        1(symmetryPlane);
        nFaces          459;
        startFace       22018;
    }
    interface
    {
        type            wall;
        inGroups        1(wall);
        nFaces          0;
        startFace       22477;
    }
    procBoundary2to1
    {
        type            processor;
        inGroups        1(processor);
        nFaces          256;
        startFace       22477;
        matchTolerance  0.000100000000000000005;
        transform       unknown;
        myProcNo        2;
        neighbProcNo    1;
    }
    procBoundary2to3
    {
        type            processor;
        inGroups        1(processor);
        nFaces          451;
        startFace       22733;
        matchTolerance  0.000100000000000000005;
        transform       unknown;
        myProcNo        2;
        neighbProcNo    3;
    }
)

// ************************************************************************* //
