/*--------------------------------*- C++ -*----------------------------------*\
| =========                 |                                                 |
| \\      /  F ield         | OpenFOAM: The Open Source CFD Toolbox           |
|  \\    /   O peration     | Version:  2206                                  |
|   \\  /    A nd           | Website:  www.openfoam.com                      |
|    \\/     M anipulation  |                                                 |
\*---------------------------------------------------------------------------*/
FoamFile
{
    version     2.0;
    format      ascii;
    arch        "LSB;label=32;scalar=64";
    class       polyBoundaryMesh;
    location    "constant/polyMesh";
    object      boundary;
}
// * * * * * * * * * * * * * * * * * * * * * * * * * * * * * * * * * * * * * //

10
(
    inlet
    {
        type            patch;
        nFaces          0;
        startFace       20536;
    }
    outlet
    {
        type            patch;
        nFaces          0;
        startFace       20536;
    }
    top
    {
        type            wall;
        inGroups        1(wall);
        nFaces          434;
        startFace       20536;
    }
    bottom
    {
        type            wall;
        inGroups        1(wall);
        nFaces          0;
        startFace       20970;
    }
    left
    {
        type            wall;
        inGroups        1(wall);
        nFaces          462;
        startFace       20970;
    }
    symmetry
    {
        type            symmetryPlane;
        inGroups        1(symmetryPlane);
        nFaces          443;
        startFace       21432;
    }
    interface
    {
        type            wall;
        inGroups        1(wall);
        nFaces          67;
        startFace       21875;
    }
    procBoundary1to0
    {
        type            processor;
        inGroups        1(processor);
        nFaces          426;
        startFace       21942;
        matchTolerance  0.000100000000000000005;
        transform       unknown;
        myProcNo        1;
        neighbProcNo    0;
    }
    procBoundary1to2
    {
        type            processor;
        inGroups        1(processor);
        nFaces          256;
        startFace       22368;
        matchTolerance  0.000100000000000000005;
        transform       unknown;
        myProcNo        1;
        neighbProcNo    2;
    }
    procBoundary1to3
    {
        type            processor;
        inGroups        1(processor);
        nFaces          328;
        startFace       22624;
        matchTolerance  0.000100000000000000005;
        transform       unknown;
        myProcNo        1;
        neighbProcNo    3;
    }
)

// ************************************************************************* //
