/*--------------------------------*- C++ -*----------------------------------*\
| =========                 |                                                 |
| \\      /  F ield         | OpenFOAM: The Open Source CFD Toolbox           |
|  \\    /   O peration     | Version:  v2206                                 |
|   \\  /    A nd           | Website:  www.openfoam.com                      |
|    \\/     M anipulation  |                                                 |
\*---------------------------------------------------------------------------*/
FoamFile
{
    version     2.0;
    format      ascii;
    class       volScalarField;
    object      epsilon;
}
// * * * * * * * * * * * * * * * * * * * * * * * * * * * * * * * * * * * * * //

dimensions      [0 2 -3 0 0 0 0];

#include        "include/initialConditions"

internalField   uniform $turbulentEpsilon;

boundaryField
{
    terrain
    {
        type            epsilonWallFunction;
        Cmu             0.09;
        kappa           0.4;
        E               9.8;
        value           $internalField;
    }

    eastBC
    {
        type            inletOutlet;
        inletValue      uniform $turbulentEpsilon;
        value           $internalField;
    }

    westBC
    {
        type            atmBoundaryLayerInletEpsilon;
        #include        "include/ABLConditions"
    }

    ground
    {
        type            zeroGradient;
    }

    southBC
    {
       type            atmBoundaryLayerInletEpsilon;
        #include        "include/ABLConditions"
    }

    northBC
    {
        type            inletOutlet;
        inletValue      uniform $turbulentEpsilon;
        value           $internalField;
    }
    
    #include "include/sideAndTopPatches"
}


// ************************************************************************* //
