/*--------------------------------*- C++ -*----------------------------------*\
| =========                 |                                                 |
| \\      /  F ield         | OpenFOAM: The Open Source CFD Toolbox           |
|  \\    /   O peration     | Version:  2206                                  |
|   \\  /    A nd           | Website:  www.openfoam.com                      |
|    \\/     M anipulation  |                                                 |
\*---------------------------------------------------------------------------*/
FoamFile
{
    version     2.0;
    format      ascii;
    arch        "LSB;label=32;scalar=64";
    class       polyBoundaryMesh;
    location    "constant/polyMesh";
    object      boundary;
}
// * * * * * * * * * * * * * * * * * * * * * * * * * * * * * * * * * * * * * //

10
(
    inlet
    {
        type            patch;
        nFaces          0;
        startFace       20390;
    }
    outlet
    {
        type            patch;
        nFaces          144;
        startFace       20390;
    }
    top
    {
        type            wall;
        inGroups        1(wall);
        nFaces          0;
        startFace       20534;
    }
    bottom
    {
        type            wall;
        inGroups        1(wall);
        nFaces          608;
        startFace       20534;
    }
    left
    {
        type            wall;
        inGroups        1(wall);
        nFaces          453;
        startFace       21142;
    }
    symmetry
    {
        type            symmetryPlane;
        inGroups        1(symmetryPlane);
        nFaces          452;
        startFace       21595;
    }
    interface
    {
        type            wall;
        inGroups        1(wall);
        nFaces          104;
        startFace       22047;
    }
    procBoundary3to0
    {
        type            processor;
        inGroups        1(processor);
        nFaces          96;
        startFace       22151;
        matchTolerance  0.000100000000000000005;
        transform       unknown;
        myProcNo        3;
        neighbProcNo    0;
    }
    procBoundary3to1
    {
        type            processor;
        inGroups        1(processor);
        nFaces          328;
        startFace       22247;
        matchTolerance  0.000100000000000000005;
        transform       unknown;
        myProcNo        3;
        neighbProcNo    1;
    }
    procBoundary3to2
    {
        type            processor;
        inGroups        1(processor);
        nFaces          451;
        startFace       22575;
        matchTolerance  0.000100000000000000005;
        transform       unknown;
        myProcNo        3;
        neighbProcNo    2;
    }
)

// ************************************************************************* //
